Version 4
SHEET 1 908 936
WIRE -592 272 -640 272
WIRE -576 272 -592 272
WIRE -544 272 -576 272
WIRE -432 272 -464 272
WIRE -400 272 -432 272
WIRE -272 272 -400 272
WIRE -176 272 -272 272
WIRE -32 272 -176 272
WIRE 208 272 -32 272
WIRE -272 288 -272 272
WIRE -176 288 -176 272
WIRE -32 288 -32 272
WIRE -1008 304 -1040 304
WIRE -928 304 -944 304
WIRE -912 304 -928 304
WIRE -640 320 -640 272
WIRE 176 320 144 320
WIRE 192 320 176 320
WIRE -1040 336 -1040 304
WIRE -944 336 -944 304
WIRE -576 336 -576 272
WIRE -432 336 -432 272
WIRE 144 352 144 320
WIRE -272 368 -272 352
WIRE -272 368 -336 368
WIRE -176 368 -176 352
WIRE -96 368 -176 368
WIRE 208 368 208 272
WIRE 208 368 160 368
WIRE -272 384 -272 368
WIRE -176 384 -176 368
WIRE -32 384 -32 368
WIRE 96 384 -32 384
WIRE -32 400 -32 384
WIRE 208 400 160 400
WIRE -1040 448 -1040 416
WIRE -944 448 -944 416
WIRE 144 464 144 416
WIRE 176 464 144 464
WIRE 192 464 176 464
WIRE -640 496 -640 400
WIRE -576 496 -576 400
WIRE -432 496 -432 400
WIRE -272 496 -272 464
WIRE -176 496 -176 464
WIRE -32 512 -32 480
WIRE 208 512 208 400
WIRE 208 512 -32 512
WIRE -336 528 -336 368
WIRE -96 528 -96 368
WIRE 208 528 208 512
WIRE -336 640 -336 608
WIRE -288 640 -336 640
WIRE -256 640 -288 640
WIRE -96 640 -96 608
WIRE -48 640 -96 640
WIRE -16 640 -48 640
WIRE 208 640 208 608
FLAG -1040 448 0
FLAG -944 448 0
FLAG -928 304 Vcc
FLAG -1040 304 Ve
FLAG 176 320 Ve
FLAG 176 464 Vcc
FLAG 208 640 0
FLAG -176 496 0
FLAG -272 496 0
FLAG -432 496 0
FLAG -576 496 0
FLAG -640 496 0
FLAG -48 640 Vcc
FLAG -288 640 Ve
FLAG -592 272 V1
FLAG -400 272 V2
SYMBOL voltage -944 320 R0
WINDOW 123 0 0 Left 2
WINDOW 39 0 0 Left 2
SYMATTR InstName V1
SYMATTR Value 100
SYMBOL voltage -1040 432 R180
WINDOW 123 0 0 Left 2
WINDOW 39 0 0 Left 2
SYMATTR InstName V2
SYMATTR Value 100
SYMBOL res -48 272 R0
SYMATTR InstName R1
SYMATTR Value 290
SYMBOL res -48 384 R0
SYMATTR InstName R2
SYMATTR Value 290
SYMBOL res 192 512 R0
SYMATTR InstName R3
SYMATTR Value 1.2k
SYMBOL diode -192 288 R0
SYMATTR InstName D1
SYMATTR Value 1N4148
SYMBOL diode -256 352 R180
WINDOW 0 -32 61 Left 2
WINDOW 3 -69 -2 Left 2
SYMATTR InstName D2
SYMATTR Value 1N4148
SYMBOL res -288 368 R0
SYMATTR InstName R4
SYMATTR Value 3.3k
SYMBOL res -192 368 R0
SYMATTR InstName R5
SYMATTR Value 3.3k
SYMBOL cap -448 336 R0
SYMATTR InstName C1
SYMATTR Value 4.6nF
SYMBOL res -448 256 R90
WINDOW 0 0 56 VBottom 2
WINDOW 3 32 56 VTop 2
SYMATTR InstName R6
SYMATTR Value 1.6k
SYMBOL cap -592 336 R0
SYMATTR InstName C2
SYMATTR Value 47nF
SYMBOL ind -624 416 R180
WINDOW 0 36 80 Left 2
WINDOW 3 36 40 Left 2
SYMATTR InstName L1
SYMATTR Value 8.5mH
SYMBOL res -352 512 R0
SYMATTR InstName R7
SYMATTR Value 47k
SYMBOL res -112 512 R0
SYMATTR InstName R8
SYMATTR Value 47k
SYMBOL Opamps\\LT1351 128 384 R180
SYMATTR InstName U1
TEXT -632 616 Left 2 !.tran 0 100m 0 0.1m
